220
xx.xyz
Al         9.97600        7.71700        8.37900
C         10.12700        9.00900        8.29000
C          8.50500        5.51900        8.20400
H          0.74000       10.66300        1.39900
O          0.75100        4.76000        7.73400
O          0.77000       10.66600        8.82100
O          0.79800        4.69900        0.33500
O          2.47600       11.57600        7.02400
O          2.50300       11.44400       14.41600
O          2.61500        4.00200        9.42300
O          2.67300        9.07200        7.87300
O          2.61200        6.50000        8.46800
O          2.65200        9.02100        0.56000
O          2.66900        6.43400        1.04000
O          2.72000        3.95600        1.98400
O          3.17800        4.50700        6.82900
O          3.24300       11.10500        2.07600
O          3.27600        4.41500       14.24700
O          3.27900       11.04100        9.53100
O          3.43200       11.89800        4.58000
O          3.48100       11.90100       12.01100
O          3.78900       13.70000       13.95300
O          3.77300       13.80100        6.40400
O          3.92500        4.01600       11.72500
O          3.94800        4.11900        4.36000
O          4.01400        1.87200       10.16300
O          4.22400        1.95700        2.86700
O          4.22800       13.50400        2.60000
O          4.30200        2.19900        6.17200
O          4.23700       13.45500        9.97200
O          4.31900        2.09700       13.52400
O          4.45600        8.07700        9.54900
O          4.56000        7.44700        6.95400
O          4.55500        7.98200        2.06900
O          4.58600        7.44100       14.33300
O          5.08700       11.50800        6.64800
O          5.11400       11.38600       14.07100
O          5.25300        4.09000        9.37300
O          5.31800        4.27400        2.08100
O          5.37200        8.09100        4.53400
O          5.40900        8.20100       11.95400
O          5.40000        0.89600        0.72300
O          5.47100        0.84000        8.15200
O          5.62100       11.32300        3.23100
O          5.67500       11.34400       10.66700
O          5.78100        4.37500        6.25400
O          5.83200        4.26800       13.54600
O          6.25700        0.43700        5.68500
O          6.25400        0.27500       13.16200
O          6.44900        0.80500       10.56400
O          6.55100        6.51000       10.19600
O          6.49600        9.27600        6.66200
O          6.56300        0.69200        3.04700
O          6.59300        9.18500       14.13300
O          6.63700        6.46600        2.83800
O          7.00100        6.77400        6.15200
O          6.92400        9.08000        2.61100
O          6.88700        9.08100        9.92800
O          6.98500        6.67600       13.46500
O          7.01200       11.17200        0.94900
O          7.06200       11.22800        8.37900
O          7.36400        5.11300        0.65100
O          7.63500        5.04700        8.04600
O          7.62200       11.51900        5.84600
O          7.65000       11.46500       13.28200
O          7.79200        4.09400        3.01800
O          7.89300        3.99900       10.59000
O          8.08300        2.09900        4.73100
O          8.08500        1.99300       12.32100
O          8.25600       11.28200        3.26900
O          8.29500       13.58200       11.80600
O          8.31200       11.16500       10.70700
O          8.36400        4.58800        5.56900
O          8.38100       13.66100        4.48900
O          8.44300        4.47100       13.17700
O          9.86100        6.53800        8.46700
O         10.11000       11.75000        5.09400
O         10.12200       11.79200       12.52800
O         10.18300        3.55200        3.97400
O         10.23200        3.35100       11.59300
O         11.82700        4.49900        5.82700
O         11.89600       13.67000       11.99500
O         11.89700       13.60000        4.46000
O         11.91000        4.52800       13.27900
O         12.01700       11.16100        3.38200
O         12.02700       11.28300       10.79200
O         12.14500        2.03200        4.90500
O         12.41300        2.09400       12.40500
O         12.54700       11.52800        5.98800
O         12.59300        4.12600       10.73000
O         12.59100       11.52600       13.39500
O         12.67500        4.07700        3.32500
O         12.77200        4.94000        0.84000
O         12.80400        4.92600        8.24100
O         13.18200        6.71700        6.31600
O         13.23000        6.74900       13.82000
O         13.23500       11.24900        1.02600
O         13.28400       11.21900        8.47700
O         13.43200        9.13600       10.13600
O         13.49400        9.11200        2.57700
O         13.58800        6.53000       10.22000
O         13.58100        6.51300        2.83900
O         13.65500        9.25600        6.74100
O         13.77400        9.29100       14.15400
O         13.78700        0.85500        3.17500
O         13.81200        0.74700       10.58600
O         14.03100        0.38700        5.78900
O         14.17500        0.29700       13.18900
O         14.43700        4.35900        6.19800
O         14.52700        4.42100       13.69900
O         14.62300       11.42300        3.30900
O         14.65700       11.42600       10.76300
O         14.78800        8.05300        4.65200
O         14.80000        0.94600        0.78400
O         14.84300        0.98400        8.21400
O         14.83800        7.98200       12.09100
O         14.98700        4.35300        9.59600
O         15.00900        4.38600        2.11500
O         15.14200       11.45200        6.61300
O         15.18100       11.52900       14.06700
O         15.61400        7.46400        7.07300
O         15.68300        7.45100       14.52100
O         15.79000        7.97900        9.67900
O         15.83600        7.86300        2.27700
O         15.97000       13.61700        2.64600
O         15.96900        2.20100        6.13100
O         15.99400        2.21000       13.61000
O         16.02400       13.58700       10.00800
O         16.13400        2.03800       10.29400
O         16.13800        2.06500        2.80700
O         16.36800        4.17300        4.40700
O         16.39800        4.16100       11.85700
O         16.39900       13.80900        6.55800
O         16.53000       13.83000       14.04400
O         16.82000       12.04000        4.62300
O         16.85200       12.08600       12.05700
O         16.99100       11.23200        2.12900
O         17.02300       11.17700        9.59500
O         16.98900        4.51600        6.92600
O         17.11100        4.48100       14.35300
O         17.43400        9.14600        0.57900
O         17.46700        9.13800        7.98100
O         17.60000        4.10100        9.49500
O         17.62000        4.14000        2.07400
O         17.66700        6.55800        8.46700
O         17.73500        6.56800        0.96700
O         17.74800       11.59500        7.05100
O         17.80500       11.55700       14.45800
O          2.27600       10.56400        0.89500
Si         2.30800       10.59400        8.31500
Si         2.30900        4.93800        8.12900
Si         2.36500        4.87800        0.68000
Si         3.58100        7.77300        8.22400
Si         3.60300        7.72800        0.77700
Si         3.69800       12.19500        6.15500
Si         3.73800       12.11100       13.59900
Si         3.98200        3.50800       10.17100
Si         4.05100        3.57200        2.83100
Si         4.12700       11.96500        3.11300
Si         4.16300       11.94000       10.54000
Si         4.28800        3.79400        5.91700
Si         4.33800        3.70200       13.26200
Si         4.96900        0.79000        6.61300
Si         4.97200        0.71600       14.05700
Si         5.06100        0.71000        9.72200
Si         5.11400        0.71500        2.30600
Si         5.83700        7.92200        6.07800
Si         5.83700        7.91600       10.40300
Si         5.87500        7.89500        2.99800
Si         5.89300        7.87900       13.46400
Si         6.56200       10.88500        6.87300
Si         6.60600       10.79900       14.30600
Si         6.77400        4.99800        2.14600
Si         6.94500       10.70800        2.50000
Si         6.96800       10.69800        9.91300
Si         7.14500        5.19100        6.43400
Si         7.16100        5.12400       13.92100
Si         7.28300        0.64300       11.95400
Si         7.32400        0.68700        4.48600
Si         8.57900       12.05700        4.66600
Si         8.58200       12.01000       12.08200
Si         8.60500        3.57200        4.31000
Si         8.64000        3.46800       11.89400
Si        11.66200       12.01500        4.72400
Si        11.67400       12.07000       12.17900
Si        11.71000        3.54400        4.50800
Si        11.77400        3.53100       11.99800
Si        12.98600        0.68700        4.57900
Si        13.08100        5.12500        6.65600
Si        13.08600        0.67300       12.04000
Si        13.14100        5.15200       14.13000
Si        13.34900       10.73100        2.55900
Si        13.36100       10.75700       10.03100
Si        13.49200        4.98800        9.71200
Si        13.50500        4.98700        2.28500
Si        13.66900       10.86800        6.93800
Si        13.71800       10.89900       14.35900
Si        14.31500        7.88000        6.19300
Si        14.38400        7.88100       13.64500
Si        14.42600        7.87900        3.08000
Si        14.41100        7.89600       10.52800
Si        15.18900        0.82500        2.35500
Si        15.22100        0.79500        9.78100
Si        15.32400        0.81800        6.67500
Si        15.40600        0.79600       14.12800
Si        15.94100        3.81200        5.93300
Si        16.00100        3.81900       13.39600
Si        16.10600       12.08600        3.16700
Si        16.14300       12.07800       10.60000
Si        16.27600        3.65800       10.32100
Si        16.28000        3.68300        2.86200
Si        16.51600       12.22400        6.20700
Si        16.58000       12.24800       13.65000
Si        16.65000        7.76500        0.87000
Si        16.63200        7.79000        8.30200
Si        17.90500       10.65800        0.92400
Si        17.93000       10.64700        8.36400
Si        17.92300        4.98200        8.16000
Si        17.96700        4.97700        0.71700
Si         6.74300        4.88300        9.69600
